[General]
**.X_area_size = 1000
**.Y_area_size = 1000
**.test_type = 1
network = joint_virtual_mimo.Network
sim-time-limit=500s
