[General]
**.X_area = 1000
**.Y_area = 1000
**.test_type = 1
network = joint_virtual_mimo.Network
sim-time-limit=500s

[Config Basic]

*.host*.ipv4.arp.typename = "GlobalArp"

*.hostA.numApps = 1
*.hostA.app[0].typename = "UdpBasicApp"
*.hostA.app[0].destAddresses = "hostB"
*.hostA.app[0].destPort = 5000
*.hostA.app[0].messageLength = 1024B
*.hostA.app[0].sendInterval = exponential(12ms)
*.hostA.app[0].packetName = "UDPData"

*.hostB.numApps = 1
*.hostB.app[0].typename = "UdpSink"
*.hostB.app[0].localPort = 5000



*.host*.wlan[0].typename = "AckingWirelessInterface"
*.host*.wlan[0].mac.useAck = false
*.host*.wlan[0].mac.fullDuplex = false
*.host*.wlan[0].radio.transmitter.communicationRange = 250m

*.hostA.wlan[0].radio.displayCommunicationRange = true

*.visualizer.sceneVisualizer.descriptionFigure = "title"

*.visualizer.mediumVisualizer.displaySignals = true

*.visualizer.physicalLinkVisualizer.displayLinks = true
*.visualizer.physicalLinkVisualizer.packetFilter = "UDPData*"


*.host*.wlan[0].radio.receiver.ignoreInterference = true

*.hostR1.wlan[0].radio.displayCommunicationRange = true

*.host*.**.bitrate = 1Mbps