[General]
**.X_area_size = 1000
**.Y_area_size = 1000
**.test_type = 1
network = joint_virtual_mimo_and_data_gathering_for_wireless_sensor_networks.Network
sim-time-limit=500s
